test/test_files/validation_tests/case6495rte_res.m
function mpc = case6495rte_res
%CASE6495RTE_RES

%% MATPOWER Case Format : Version 2
mpc.version = '2';

%%-----  Power Flow Data  -----%%
%% system MVA base
mpc.baseMVA = 100;

%% bus data
%    bus_i    type    Pd    Qd    Gs    Bs    area    Vm    Va    baseKV    zone    Vmax    Vmin
mpc.bus = [
    1    1    0    0    0    0    1    0.979893034    -10.3701217    45    1    1    0.888889;
    2    1    0    0    0    0    1    1.03715025    -10.3487391    63    1    1.06349    0.936508;
    3    1    13.1    2.6    0    0    1    1.02433172    -12.8467184    63    1    1.07937    0.952381;
    4    1    49.2    3.4    0    0    1    1.0392135    -24.10863    90    1    1.08889    0.933333;
    5    1    11    0    0    0    1    1.01936348    -52.5434171    63    1    1.06349    0.952381;
    6    1    13    4.3    0    0    1    1.02004802    -21.241632    63    1    1.07937    0.920635;
    7    1    1.2    0.7    0    0    1    1.04792706    -23.3217219    63    1    1.07937    0.920635;
    8    1    24.6    13.1    0    0    1    1.04830195    -17.3633763    225    1    1.08889    0.888889;
    9    1    14.9    0    0    0    1    1.0457517    -17.7062317    63    1    1.06349    0.936508;
    10    1    0    0    0    0    1    1.03364016    -22.9654866    90    1    1.07778    0.922222;
    11    1    30.7    -2    0    0    1    1.03363994    -22.9654841    90    1    1.07778    0.922222;
    12    1    0    0    0    0    1    1.01664069    1.01993516    63    1    1.07937    0.952381;
    13    1    0    0    0    0    1    1.05890205    -3.63969357    380    1    1.10263    1.05313;
    14    1    52.7    13.4    0    30.4    1    1.06714683    -31.2195018    90    1    1.07778    0.977778;
    15    1    0    0    0    0    1    1.03133857    -23.3355069    63    1    1.07937    0.920635;
    16    1    12.5    -0.6    0    0    1    1.03134679    -29.0245827    63    1    1.07937    0.920635;
    17    1    10.9    0.2    0    0    1    1.04794595    -31.3414566    90    1    1.06667    0.977778;
    18    1    0    0    0    0    1    0.936377773    -5.05868218    45    1    1    0.888889;
    19    1    0    0    0    0    1    1.0308717    -20.3129598    63    1    1.06349    0.936508;
    20    1    3.9    -18.2    0    0    1    0.937158453    -5.09346742    45    1    1    0.888889;
    21    1    6.3    -2.5    0    0    1    1.03894872    -19.7059872    90    1    1.06667    0.977778;
    22    1    17.3    0.8    0    0    1    1.02417068    -13.0099949    63    1    1.07937    0.952381;
    23    1    24.4    1.4    0    0    1    1.01426877    -10.2108114    63    1    1.06349    0.936508;
    24    1    16.7    -1.3    0    0    1    1.04175688    -22.5295889    90    1    1.11111    0.955556;
    25    1    51.1    -4    0    0    1    1.07638926    -18.9218743    90    1    1.1    0.944444;
    26    1    32.4    5    0    0    1    1.03527519    -25.0948661    90    1    1.06667    0.977778;
    27    1    0    0    0    0    1    1.06660838    -20.5080802    225    1    1.08444    1.00444;
    28    1    0    -0.2    0    0    1    1.03351271    -20.2093639    63    1    1.07937    0.952381;
    29    1    75    9.3    0    0    1    0.993975231    -23.1292277    63    1    1.06349    0.968254;
    30    1    37.6    3.3    0    0    1    1.03314256    -23.1711357    90    1    1.08889    0.933333;
    31    1    0    0    0    0    1    1.03625025    -8.98642055    63    1    1.06349    0.936508;
    32    1    0    0    0    0    1    1.04470301    -3.80007307    150    1    1.10667    0.9;
    33    1    0    0    0    0    1    1.05413663    -6.20664647    225    1    1.08889    0.933333;
    34    1    0    0    0    0    1    1.04983154    -5.53679834    225    1    1.08889    0.933333;
    35    1    0    0    0    0    1    1.07133354    -4.98552395    380    1    1.10526    1.03947;
    36    1    0    0    0    0    1    1.07322036    -3.89592591    380    1    1.10526    1.03947;
    37    1    2.4    4.7    0    0    1    1.01508935    -25.6223235    63    1    1.07937    0.920635;
    38    1    8    3    0    0    1    1.0352819    -20.7736586    63    1    1.09524    0.936508;
    39    1    40.6    -4.9    0    0    1    1.01381522    -38.8390535    90    1    1.07778    0.977778;
    40    1    34.7    5.1    0    0    1    1.05527449    -29.4692995    90    1    1.07778    0.977778;
    41    1    0    0    0    0    1    1.07410024    -25.838837    225    1    1.09152    1.00444;
    42    1    0    0    0    0    1    1.12162005    4.48783928    63    1    1.12834    0.952381;
    43    1    3.3    2.7    0    0    1    1.04783898    -26.6647367    90    1    1.07778    0.977778;
    44    1    15.2    1.6    0    0    1    1.02768593    -49.8064871    63    1    1.06349    0.952381;
    45    1    3.8    0.8    0    0    1    1.02336375    -33.395119    90    1    1.06667    0.977778;
    46    1    0    0    0    0    1    1.03292487    -15.1057388    63    1    1.06349    0.936508;
    47    2    0    0    0    0    1    1.027    -12.083344    63    1    1.06349    0.936508;
    48    1    38.6    3.9    0    0    1    1.03526822    -23.958526    90    1    1.07778    0.922222;
    49    1    9.9    -2.6    0    0    1    1.0370246    -15.831917    63    1    1.06349    0.936508;
    50    1    0    0    0    0    1    1.07071548    -13.4366457    63    1    1.07458    0.936508;
    51    1    0    0    0    0    1    1.05549546    -8.72021398    225    1    1.08889    0.933333;
    52    1    8    3.5    0    0    1    1.03612193    -34.8305855    90    1    1.06667    0.977778;
    53    1    0.1    -1.2    0    0    1    1.00766185    -27.1124989    63    1    1.04762    0.952381;
    54    1    -0.6    1.2    0    0    1    1.03886173    -17.8020842    90    1    1.06667    0.977778;
    55    1    49    11.3    0    0    1    1.07439337    -28.5258789    225    1    1.08991    1.00444;
    56    1    78.6    22.5    0    0    1    1.06403385    -24.7096761    225    1    1.08889    1.00444;
    57    2    0    0    0    0    1    1.061    -19.067579    63    1    1.07937    0.920635;
    58    1    146.7    32.5    0    0    1    1.07422414    -28.5409205    225    1    1.08975    1.00444;
    59    1    5.1    0.4    0    0    1    1.04830259    -11.1628655    63    1    1.07937    0.952381;
    60    1    0    0    0    0    1    1.03839799    -5.54443758    63    1    1.07937    0.952381;
    61    1    41.4    11.6    0    0    1    1.04122843    -7.53216271    63    1    1.07937    0.952381;
    62    1    0    0    0    0    1    1.02509396    -5.65577019    63    1    1.07937    0.952381;
    63    1    15.8    2    0    0    1    1.01103701    0.049135984    63    1    1.07937    0.952381;
    64    1    64.3    5.4    0    0    1    1.06588035    -16.5359813    225    1    1.08889    0.888889;
    65    1    12    2.9    0    0    1    1.05154169    -8.12036142    63    1    1.07937    0.952381;
    66    1    14.4    -6.8    0    0    1    1.04161738    -24.3527071    63    1    1.06349    0.936508;
    67    1    1    0    0    0    1    1.04174355    -20.4465623    63    1    1.07937    0.920635;
    68    1    48.7    3.8    0    0    1    1.02271659    -15.0357333    63    1    1.06349    0.936508;
    69    1    17.3    -1.6    0    0    1    1.04469441    -53.9190338    63    1    1.06349    0.952381;
    70    1    11.7    3.5    0    0    1    1.02111679    1.75894029    63    1    1.07937    0.952381;
    71    1    68.8    17.2    0    0    1    1.02187174    -27.6286944    63    1    1.04762    0.952381;
    72    1    0    0    0    0    1    1.07905772    -20.4387836    225    1    1.08892    1.00444;
    73    1    0    0    0    0    1    1.07905853    -20.4380188    225    1    1.08892    1.00444;
    74    1    53.3    -8.7    0    0    1    1.06637836    -16.3856315    225    1    1.08889    0.888889;
    75    1    25    1.6    0    0    1    1.04842046    -21.1753287    90    1    1.06667    0.977778;
    76    1    9    0.7    0    0    1    1.07517032    3.48570661    225    1    1.08889    0.986667;
    77    1    40.8    -1.5    0    0    1    1.02800445    -16.3282866    63    1    1.06349    0.936508;
    78    1    0    0    0    0    1    1.03831898    -26.317676    63    1    1.07937    0.920635;
    79    1    0    0    0    0    1    1.01089841    -26.176579    63    1    1.04762    0.952381;
    80    1    34.6    10.4    0    0    1    1.04923048    -25.8414379    225    1    1.08889    1.00444;
    81    1    34.6    9    0    0    1    1.04924991    -25.8413673    225    1    1.08889    1.00444;
    82    1    11.6    -0.2    0    0    1    1.03843757    -16.7192443    63    1    1.06349    0.936508;
    83    1    92.4    64.5    0    0    1    1.05946458    -26.2875365    225    1    1.08889    1.00444;
    84    1    1.4    -0.2    0    0    1    1.02536595    -12.5263292    63    1    1.06349    0.936508;
    85    1    1.8    -2    0    0    1    1.04847453    -16.0470329    63    1    1.06568    0.936508;
    86    1    44.9    3.7    0    0    1    1.03240005    -42.3477369    90    1    1.06667    0.977778;
    87    1    0    0    0    0    1    1.02476014    0.195931761    63    1    1.07937    0.952381;
    88    1    15.9    2    0    0    1    1.03992314    -18.4923263    63    1    1.06349    0.936508;
    89    1    25.7    0.4    0    0    1    1.04374964    -29.2075486    90    1    1.07778    0.977778;
    90    1    0.4    -2.3    0    0    1    0.9411413    -5.76250472    45    1    1    0.888889;
    91    1    0    0    0    0    1    0.936377773    -5.05868218    45    1    1    0.888889;
    92    1    31.6    3.2    0    0    1    1.01482011    -18.968519    63    1    1.06349    0.968254;
    93    1    2.2    -2.2    0    0    1    0.953435365    -7.7176791    45    1    1    0.888889;
    94    1    16.9    -4.6    0    0    1    1.04421443    -24.0492595    90    1    1.06667    0.977778;
    95    1    53.2    9.3    0    0    1    1.03697618    -34.7237474    90    1    1.06667    0.977778;
    96    1    1.2    0.1    0    0    1    1.05121476    -8.3199928    63    1    1.06349    0.936508;
    97    1    55    1.6    0    0    1    1.03680941    -23.8899805    63    1    1.07937    0.920635;
    98    1    7.7    -2.1    0    0    1    1.03306299    -19.2987141    63    1    1.07937    0.952381;
    99    1    31.9    5    0    0    1    1.0475342    -7.20746909    63    1    1.07937    0.952381;
    100    1    59.9    8.9    0    0    1    1.02153606    -14.1071673    63    1    1.06349    0.936508;
    101    1    17.1    0.1    0    0    1    1.01462219    -13.3347114    63    1    1.06349    0.936508;
    102    2    0    0    0    0    1    1.03    -14.732623    63    1    1.07937    0.952381;
    103    1    13    -1.4    0    0    1    1.04168195    -5.90577943    63    1    1.07937    0.952381;
    104    1    0    0    0    0    1    1.07376317    -3.23433594    225    1    1.08889    0.986667;
    105    1    37.7    0.8    0    0    1    1.04768589    -15.0387009    225    1    1.08889    0.888889;
    106    1    56.3    8.2    0    0    1    1.05807326    -19.8681003    90    1    1.1    0.944444;
    107    1    107.4    13.9    0    0    1    1.04740389    -28.4234935    225    1    1.08444    1.00889;
    108    1    12.7    -3.9    0    0    1    1.05194743    -24.8883183    90    1    1.07778    0.977778;
    109    1    60.8    4.1    0    0    1    1.04888744    -12.4790952    63    1    1.06837    0.936508;
    110    1    0    0    0    0    1    1.03317491    -8.82473812    225    1    1.08889    0.933333;
    111    1    37.3    -7.4    0    0    1    1.00285441    -21.3893865    63    1    1.06349    0.968254;
    112    1    0    0    0    0    1    1.02277457    -27.3224882    63    1    1.04762    0.952381;
    113    1    0    0    0    0    1    1.05428212    -23.8419586    225    1    1.08889    1.00444;
    114    1    12.9    0.7    0    0    1    1.0469947    -11.7068734    63    1    1.06349    0.936508;
    115    1    0    0    0    0    1    1.05891122    -3.63977695    380    1    1.10526    1.05263;
    116    1    0    0    0    0    1    1.05891122    -3.63977695    380    1    1.10526    1.05263;
    117    1    12.8    -2.1    0    0    1    1.02390893    -18.2962926    63    1    1.07937    0.952381;
    118    1    2    0.8    0    0    1    1.05080119    -20.8533655    90    1    1.06667    0.977778;
    119    1    40.3    3.7    0    0    1    1.01921762    -10.1737255    63    1    1.06349    0.936508;
    120    1    22    -2.3    0    0    1    1.01796489    -9.15059926    63    1    1.06349    0.936508;
    121    1    22.1    6.8    0    0    1    1.02368033    -25.6578856    63    1    1.07937    0.920635;
    122    2    0    0    0    0    1    1.038    -6.82005948    63    1    1.07937    0.952381;
    123    1    11    3.7    0    0    1    1.0359314    -6.94681031    63    1    1.07937    0.952381;
    124    1    8.9    -2.2    0    0    1    1.04547531    -27.3901603    90    1    1.06667    0.977778;
    125    1    11.6    -1.2    0    0    1    1.03277612    -13.5999451    63    1    1.07937    0.952381;
    126    1    0.4    0.3    0    0    1    1.05036369    -16.016882    63    1    1.06349    0.936508;
    127    1    10.7    2.9    0    0    1    1.01431466    -29.9984917    63    1    1.04762    0.952381;
    128    1    13.4    5    0    0    1    1.02103076    -11.2910827    63    1    1.06349    0.968254;
    129    1    17    12.8    0    0    1    1.01953556    -9.55034548    63    1    1.06349    0.968254;
    130    1    0    0    0    0    1    1.0490439    -8.71877411    225    1    1.08444    1.00889;
    131    1    110.7    4.4    0    0    1    1.04723334    -16.2527111    225    1    1.08444    1.00889;
    132    2    9.4    0    0    0    1    1.068    -17.173039    90    1    1.07778    0.922222;
    133    1    2.5    -0.1    0    0    1    0.98577194    -29.7437817    63    1    1.04762    0.952381;
    134    1    101.1    28.6    0    0    1    1.03201673    -26.572465    225    1    1.08889    1.00444;
    135    1    0    0    0    0    1    1.07521745    -28.3554836    225    1    1.09072    1.00444;
    136    1    23.7    0.6    0    0    1    1.04368466    -37.7171427    90    1    1.07778    0.977778;
    137    2    8.1    -3.8    0    0    1    1.032    -12.8820091    63    1    1.06349    0.968254;
    138    1    0    0    0    0    1    1.05024708    -11.0687847    150    1    1.08    0.966667;
    139    1    15.7    4.1    0    0    1    1.03445562    -16.9323033    63    1    1.07937    0.920635;
    140    1    0    0    0    80    1    1.05987231    -13.2187764    225    1    1.08889    1;
    141    1    0    0    0    0    1    1.06803926    -9.78758743    380    1    1.10526    1.05263;
    142    1    12.5    1.1    0    0    1    1.0517317    -10.7247553    63    1    1.07937    0.952381;
    143    1    0    0    0    0    1    1.06966695    -6.31887448    225    1    1.08889    0.986667;
    144    1    8.9    2.5    0    0    1    1.04615994    -20.7097917    90    1    1.11111    0.955556;
    145    1    24    7.7    0    0    1    1.06730871    -16.2761653    225    1    1.08889    0.968889;
    146    1    0    0    0    0    1    1.07893564    -13.2498267    380    1    1.10526    1;
    147    1    28    4.6    0    0    1    1.0460681    -14.7808533    63    1    1.06349    0.936508;
    148    1    6.6    1.5    0    0    1    1.04459983    -12.0954914    63    1    1.06349    0.936508;
    149    1    15.9    4.2    0    0    1    1.04278469    -33.9883126    90    1    1.06667    0.977778;
    150    1    48.4    1    0    0    1    1.0345059    -9.48515423    63    1    1.06349    0.936508;
    151    1    0    0    0    0    1    0.984485148    -24.2362902    63    1    1.06349    0.968254;
    152    1    42.6    9.4    0    7.7    1    0.984373938    -22.981945    63    1    1.06349    0.968254;
    153    1    26.9    -4.9    0    0    1    1.0418119    -10.7302145    63    1    1.06349    0.936508;
    154    1    0    0    0    0    1    1.06419137    -7.45300999    225    1    1.08889    0.933333;
    155    2    0    0    0    0    1    1.04606359    -21.1341594    63    1    1.07937    0.920635;
    156    1    0    0    0    0    1    0.984438544    -24.2413503    63    1    1.06349    0.968254;
    157    1    -1.4    -2.3    0    0    1    0.930339828    -9.07548345    45    1    1    0.888889;
    158    2    0    0    0    0    1    0.963    -8.5048192    45    1    1    0.888889;
    159    1    0    0    0    0    1    1.03333218    -11.9268134    63    1    1.06349    0.936508;
    160    1    39.6    5.7    0    0    1    1.05587049    -13.5327306    225    1    1.08889    0.888889;
    161    1    40.6    10.8    0    0    1    1.05565474    -13.5340207    225    1    1.08889    0.888889;
    162    1    -0.1    -1.2    0    0    1    1.02219856    -24.9361272    90    1    1.06667    0.977778;
    163    1    0    0    0    0    1    1.02286077    -6.43581448    63    1    1.07937    0.952381;
    164    1    0    0    0    0    1    1.02286077    -6.43581448    63    1    1.07937    0.952381;
    165    1    12.5    6.7    0    0    1    1.07403518    -29.5444153    20    1    1.15    0.8;
    166    1    8.1    -0.3    0    0    1    1.04275466    -33.6369752    90    1    1.06667    0.977778;
    167    1    8.3    -2    0    0    1    1.04027647    -34.1045556    90    1    1.06667    0.977778;
    168    1    0    0    0    0    1    1.07409653    -29.5394881    225    1    1.08444    1.00444;
    169    1    9.1    -0.5    0    0    1    1.03640063    -29.6642408    90    1    1.06667    0.977778;
    170    1    78.8    13.1    0    0    1    1.04459061    -29.4437452    90    1    1.07778    0.977778;
    171    1    26.3    -0.9    0    30    1    1.05951005    -32.3538123    90    1    1.07921    0.977778;
    172    1    0    0    0    0    1    1.06881147    -28.1896468    225    1    1.08889    1.00444;
    173    1    28.9    8.2    0    0    1    1.07000053    -17.9329578    90    1    1.08889    0.933333;
    174    1    54.8    9.7    0    0    1    1.07058638    -20.6292956    90    1    1.11111    0.955556;
    175    1    0    0    0    0    1    1.02623845    -20.3937289    63    1    1.07937    0.920635;
    176    2    0    0    0    0    1    1.09807384    -18.1641948    150    1    1.1    0.9;
    177    1    0    0    0    0    1    1.06740858    -26.5883642    225    1    1.08889    1.00444;
    178    1    0    0    0    0    1    1.0674088    -26.5883654    225    1    1.08889    1.00444;
    179    1    0    0    0    0    1    1.01447721    -29.9887929    63    1    1.04762    0.952381;
    180    1    0    0    0    0    1    1.0674073    -26.5883573    225    1    1.08889    1.00444;
    181    1    14.2    -5    0    0    1    1.04276468    -25.6949298    63    1    1.07937    0.920635;
    182    1    15    4.1    0    0    1    1.04407776    -9.35969451    63    1    1.06349    0.936508;
    183    1    6.2    -0.7    0    0    1    1.03668709    -19.3207635    63    1    1.07937    0.952381;
    184    1    4    1.4    0    0    1    1.06425698    -26.0511979    90    1    1.07778    0.977778;
    185    1    28.1    2.7    0    0    1    1.04327822    -11.5375379    63    1    1.07937    0.952381;
    186    1    0.4    1.3    0    0    1    1.0290045    -23.5036342    90    1    1.06667    0.977778;
    187    2    0    0    0    0    1    1.05051182    -20.9832874    63    1    1.07937    0.920635;
    188    1    0    0    0    0    1    1.09615659    -19.2176752    63    1    1.10211    0.920635;
    189    1    16.4    2.1    0    0    1    1.03429537    -24.0791306    63    1    1.07937    0.920635;
    190    2    0    0    0    0    1    0.949967726    -6.95667282    45    1    1    0.888889;
    191    1    14.3    -1.2    0    0    1    1.03808605    -29.7211055    90    1    1.06667    0.977778;
    192    1    7.2    -2    0    0    1    1.06203927    -19.6768212    63    1    1.07937    0.920635;
    193    1    -0.3    0.8    0    0    1    1.05393535    -24.349753    225    1    1.08889    1.00444;
    194    2    0.7    -2.2    0    0    1    1.059    -24.4518399    63    1    1.07937    0.920635;
    195    1    0    0    0    0    1    1.05832148    -26.6629189    63    1    1.07545    0.952381;
    196    1    0    0    0    0    1    1.05832292    -26.6629615    63    1    1.07546    0.952381;
    197    1    27.3    0.8    0    15    1    1.0202662    -31.8602742    63    1    1.07937    0.920635;
    198    1    10    -0.7    0    0    1    1.03635018    -21.1733129    63    1    1.07937    0.920635;
    199    1    11.4    1.5    0    0    1    1.02199191    -40.0115008    90    1    1.06667    0.977778;
    200    1    0    0    0    0    1    1.08301901    -22.286457    225    1    1.08889    1;
...
];

%% generator data
%    bus    Pg    Qg    Qmax    Qmin    Vg    mBase    status    Pmax    Pmin    Pc1    Pc2    Qc1min    Qc1max    Qc2min    Qc2max    ramp_agc    ramp_10    ramp_30    ramp_q    apf
mpc.gen = [
    4    0    0    0    0    1.04    100    0    12    0    0    0    0    0    0    0    0    0    0    0    0;
    4    0    0    0    0    1.04    100    0    10    0    0    0    0    0    0    0    0    0    0    0    0;
    5    0    0    0    0    1.024    100    0    9.1    0    0    0    0    0    0    0    0    0    0    0    0;
    11    0.1    0    0    0    1.035    100    1    28    0    0    0    0    0    0    0    0    0    0    0    0;
    11    0    0    0    0    1.035    100    0    18    0    0    0    0    0    0    0    0    0    0    0    0;
    17    0    0    0    0    1.051    100    0    8.2    0    0    0    0    0    0    0    0    0    0    0    0;
    19    0    0    0    0    1.032    100    0    1.2    0    0    0    0    0    0    0    0    0    0    0    0;
    22    0    0    0    0    1.024    100    0    10    0    0    0    0    0    0    0    0    0    0    0    0;
    24    0    0    0    0    1.042    100    0    16.1    0    0    0    0    0    0    0    0    0    0    0    0;
    24    0    0    0    0    1.042    100    0    35.5    0    0    0    0    0    0    0    0    0    0    0    0;
    25    1.29    0    0    0    1.078    100    1    36    0    0    0    0    0    0    0    0    0    0    0    0;
    25    0    0    0    0    1.078    100    0    27.2    0    0    0    0    0    0    0    0    0    0    0    0;
    40    0    0    0    0    1.061    100    0    8    0    0    0    0    0    0    0    0    0    0    0    0;
    47    11.531098    -10.2482255    9.5    -10    1.027    100    1    16    0    0    0    0    0    0    0    0    0    0    0    0;
    47    8.51    -10.2482255    9.5    -10    1.027    100    1    16    0    0    0    0    0    0    0    0    0    0    0    0;
    48    0    0    0    0    1.037    100    0    23    0    0    0    0    0    0    0    0    0    0    0    0;
    48    0    0    0    0    1.037    100    0    24    0    0    0    0    0    0    0    0    0    0    0    0;
    57    4.17    1.90390268    1    0.9    1.061    100    1    13    0    0    0    0    0    0    0    0    0    0    0    0;
    64    0    0    0    0    1.067    100    0    24    0    0    0    0    0    0    0    0    0    0    0    0;
    64    0    0    0    0    1.067    100    0    27.6    0    0    0    0    0    0    0    0    0    0    0    0;
    69    0    0    0    0    1.049    100    0    30.04    0    0    0    0    0    0    0    0    0    0    0    0;
    70    0    0    0    0    1.022    100    0    23    0    0    0    0    0    0    0    0    0    0    0    0;
    85    0.15    0    0    0    1.05    100    1    6.68    0    0    0    0    0    0    0    0    0    0    0    0;
    86    0    0    0    0    1.035    100    0    9.2    0    0    0    0    0    0    0    0    0    0    0    0;
    102    17.12    -15.444977    21    -9    1.03    100    1    46    0    0    0    0    0    0    0    0    0    0    0    0;
    122    5.92    1.31847953    5    -2    1.038    100    1    12    0    0    0    0    0    0    0    0    0    0    0    0;
    124    0    0    0    0    1.047    100    0    9    0    0    0    0    0    0    0    0    0    0    0    0;
    125    1.11    0    0    0    1.034    100    1    26    0    0    0    0    0    0    0    0    0    0    0    0;
    125    0    0    0    0    1.034    100    0    12    0    0    0    0    0    0    0    0    0    0    0    0;
    132    12.21    6.17221262    3    -3    1.068    100    1    17    0    0    0    0    0    0    0    0    0    0    0    0;
    132    0    0    1    -1    1.068    100    0    4    0    0    0    0    0    0    0    0    0    0    0    0;
    132    0    0    3    -3    1.068    100    0    14    0    0    0    0    0    0    0    0    0    0    0    0;
    132    0    0    3    -3    1.068    100    0    14    0    0    0    0    0    0    0    0    0    0    0    0;
    137    0    0    0.8    -0.8    1.032    100    0    18    0    0    0    0    0    0    0    0    0    0    0    0;
    137    10.14    -0.790691654    0.8    -0.8    1.032    100    1    18    0    0    0    0    0    0    0    0    0    0    0    0;
    155    0    0    1.76    -1.76    1.05    100    0    5.3    0    0    0    0    0    0    0    0    0    0    0    0;
    158    8.2    3.39700094    10    -13    0.963    100    1    17.9    0    0    0    0    0    0    0    0    0    0    0    0;
    158    8.2    3.39700094    10    -13    0.963    100    1    17.9    0    0    0    0    0    0    0    0    0    0    0    0;
    176    0    0    10    -4    1.099    100    0    30    0    0    0    0    0    0    0    0    0    0    0    0;
    187    0    0    8    -8    1.079    100    0    11    0    0    0    0    0    0    0    0    0    0    0    0;
    187    0    0    2    -2    1.079    100    0    11    0    0    0    0    0    0    0    0    0    0    0    0;
    190    0    0    14    -14    0.948    100    0    30    0    0    0    0    0    0    0    0    0    0    0    0;
    192    2.1    0    0    0    1.062    100    1    23.5    0    0    0    0    0    0    0    0    0    0    0    0;
    194    2.48    3.7126125    1    0.9    1.059    100    1    15    0    0    0    0    0    0    0    0    0    0    0    0;
    194    2.48    3.7126125    1    0.9    1.059    100    1    15    0    0    0    0    0    0    0    0    0    0    0    0;
    217    0    0    0    0    1.029    100    0    11.94    0    0    0    0    0    0    0    0    0    0    0    0;
    224    0    0    2    0    1.099    100    0    6    0    0    0    0    0    0    0    0    0    0    0    0;
    227    0    0    0    0    1.027    100    0    7.5    0    0    0    0    0    0    0    0    0    0    0    0;
    236    0    0    0    0    1.051    100    0    33.5    0    0    0    0    0    0    0    0    0    0    0    0;
    236    0    0    0    0    1.051    100    0    24.3    0    0    0    0    0    0    0    0    0    0    0    0;
    238    0    0    0    0    1.04    100    0    8    0    0    0    0    0    0    0    0    0    0    0    0;
    238    0    0    0    0    1.04    100    0    36    0    0    0    0    0    0    0    0    0    0    0    0;
    246    0    0    2    0    1.015    100    0    1    0    0    0    0    0    0    0    0    0    0    0    0;
    246    0    0    10    -10    1.015    100    0    31    0    0    0    0    0    0    0    0    0    0    0    0;
    246    0    0    10    -10    1.015    100    0    31    0    0    0    0    0    0    0    0    0    0    0    0;
    246    0    0    10    -10    1.015    100    0    31    0    0    0    0    0    0    0    0    0    0    0    0;
    256    8.11    -4.69333239    10    -10    1.047    100    1    26    0    0    0    0    0    0    0    0    0    0    0    0;
    256    13.11    -4.69333239    10    -10    1.047    100    1    26    0    0    0    0    0    0    0    0    0    0    0    0;
    258    25.27    1.13584939    1    0.9    1.079    100    1    30    0    0    0    0    0    0    0    0    0    0    0    0;
    261    0    0    4    -4    1.047    100    0    8    0    0    0    0    0    0    0    0    0    0    0    0;
    269    0    0    0    0    1.009    100    0    12.6    0    0    0    0    0    0    0    0    0    0    0    0;
    282    0    0    6.1    -6.2    1.015    100    0    11.6    0    0    0    0    0    0    0    0    0    0    0    0;
    295    0    0    0    0    1.055    100    0    25.3    0    0    0    0    0    0    0    0    0    0    0    0;
    296    5.04    0    0    0    1.02    100    1    12    0    0    0    0    0    0    0    0    0    0    0    0;
    305    0.15    -2.28224286    9    -9    1.053    100    1    15    0    0    0    0    0    0    0    0    0    0    0    0;
    312    2.19    0    0    0    1.022    100    1    25.8    0    0    0    0    0    0    0    0    0    0    0    0;
    312    8.19    0    0    0    1.022    100    1    49.6    0    0    0    0    0    0    0    0    0    0    0    0;
    317    0    0    0    0    1.064    100    0    0    -7    0    0    0    0    0    0    0    0    0    0    0;
    317    0    0    0    0    1.064    100    0    0    -7    0    0    0    0    0    0    0    0    0    0    0;
    319    0    0    0.1    -0.1    1.037    100    0    10.8    0    0    0    0    0    0    0    0    0    0    0    0;
    325    0    0    4    -4    1.037    100    0    11    0    0    0    0    0    0    0    0    0    0    0    0;
    332    0    0    13    -9    1.034    100    0    25    0    0    0    0    0    0    0    0    0    0    0    0;
    333    0    0    13    -9    1.048    100    0    25    0    0    0    0    0    0    0    0    0    0    0    0;
    336    7.91    0.932429716    5    -6    1.026    100    1    13    0    0    0    0    0    0    0    0    0    0    0    0;
    338    0    0    10    -10    1.078    100    0    21    0    0    0    0    0    0    0    0    0    0    0    0;
    338    0    0    0.1    -0.1    1.078    100    0    2    0    0    0    0    0    0    0    0    0    0    0    0;
    345    0    0    0    0    1.035    100    0    2.3    0    0    0    0    0    0    0    0    0    0    0    0;
    345    0.05    0    0    0    1.035    100    1    19.5    0    0    0    0    0    0    0    0    0    0    0    0;
    348    0    0    0    0    1.062    100    0    22    0    0    0    0    0    0    0    0    0    0    0    0;
    357    0    0    0    0    1.018    100    0    12    0    0    0    0    0    0    0    0    0    0    0    0;
    357    0    0    0    0    1.018    100    0    12    0    0    0    0    0    0    0    0    0    0    0    0;
    364    125.15    15.5207917    59    -26    1.049    100    1    130    0    0    0    0    0    0    0    0    0    0    0    0;
    391    0    0    0    0    1.043    100    0    2.7    0    0    0    0    0    0    0    0    0    0    0    0;
    409    0    0    5    -5    1.033    100    0    18    0    0    0    0    0    0    0    0    0    0    0    0;
    411    0    0    0    0    1.038    100    0    10    0    0    0    0    0    0    0    0    0    0    0    0;
    411    0    0    0    0    1.038    100    0    11.5    0    0    0    0    0    0    0    0    0    0    0    0;
    431    2.06    0    0    0    1.062    100    1    12    0    0    0    0    0    0    0    0    0    0    0    0;
    440    0    0    10.96    -11.99    1.035    100    0    34.25    0    0    0    0    0    0    0    0    0    0    0    0;
    447    17.34    1.35223803    8    -9    0.999    100    1    25    0    0    0    0    0    0    0    0    0    0    0    0;
    462    0    0    0    0    1.038    100    0    2.4    0    0    0    0    0    0    0    0    0    0    0    0;
    462    0    0    0    0    1.038    100    0    16    0    0    0    0    0    0    0    0    0    0    0    0;
    464    4.27    0.326151889    6    -3    1.168    100    1    27    1    0    0    0    0    0    0    0    0    0    0    0;
    464    4.27    0.326151889    6    -3    1.168    100    1    27    1    0    0    0    0    0    0    0    0    0    0    0;
    466    0    0    19    -10    1.037    100    0    48    1    0    0    0    0    0    0    0    0    0    0    0;
    470    0    0    6    -6    1.049    100    0    10    0    0    0    0    0    0    0    0    0    0    0    0;
    470    0    0    5.4    -5.4    1.049    100    0    9    0    0    0    0    0    0    0    0    0    0    0    0;
    479    0    0    17    -16    1.019    100    0    27    0    0    0    0    0    0    0    0    0    0    0    0;
    479    0    0    17    -16    1.019    100    0    27    0    0    0    0    0    0    0    0    0    0    0    0;
    479    0    0    17    -16    1.019    100    0    27    0    0    0    0    0    0    0    0    0    0    0    0;
    491    0    0    8    -17    1.055    100    0    23.4    0    0    0    0    0    0    0    0    0    0    0    0;
    508    0    0    2    -2    1.029    100    0    4    0    0    0    0    0    0    0    0    0    0    0    0;
    519    0    0    0    0    1.007    100    0    10    0    0    0    0    0    0    0    0    0    0    0    0;
    520    0    0    0    0    1.042    100    0    12    0    0    0    0    0    0    0    0    0    0    0    0;
    530    1.87    0.466465702    4.8    -4.8    1.044    100    1    8    0    0    0    0    0    0    0    0    0    0    0    0;
    530    1.87    0.466465702    4.8    -4.8    1.044    100    1    8    0    0    0    0    0    0    0    0    0    0    0    0;
    530    1.87    0.466465702    4.8    -4.8    1.044    100    1    8    0    0    0    0    0    0    0    0    0    0    0    0;
    537    0    0    0    0    1.035    100    0    12    0    0    0    0    0    0    0    0    0    0    0    0;
    537    1.95    0    0    0    1.035    100    1    24    0    0    0    0    0    0    0    0    0    0    0    0;
    546    0    5.18599016    2    1.9    1.051    100    1    9    0    0    0    0    0    0    0    0    0    0    0    0;
    548    0    0    2    0    1.051    100    0    12    0    0    0    0    0    0    0    0    0    0    0    0;
    570    0    0    0    0    1.001    100    0    12    0    0    0    0    0    0    0    0    0    0    0    0;
    570    0    0    0    0    1.001    100    0    30    0    0    0    0    0    0    0    0    0    0    0    0;
    570    0    0    0    0    1.001    100    0    11.5    0    0    0    0    0    0    0    0    0    0    0    0;
    583    3.18    4.7101653    7    -4    1.021    100    1    16    0    0    0    0    0    0    0    0    0    0    0    0;
    585    0    0    0    0    0.995    100    0    9    0    0    0    0    0    0    0    0    0    0    0    0;
    586    0    0    5.7    -5.7    1.022    100    0    9.5    0    0    0    0    0    0    0    0    0    0    0    0;
    589    0    0    0.1    -0.1    1.03    100    0    1    0    0    0    0    0    0    0    0    0    0    0    0;
    593    0    0    10    -10    1.013    100    0    21    0    0    0    0    0    0    0    0    0    0    0    0;
    600    0    0    1    -1    1.03    100    0    6.1    0    0    0    0    0    0    0    0    0    0    0    0;
    610    39.12    -4.48111633    45    -45    1.028    100    1    45    0    0    0    0    0    0    0    0    0    0    0    0;
    610    0    0    45    -45    1.028    100    0    45    0    0    0    0    0    0    0    0    0    0    0    0;
    612    0    0    0    0    1.024    100    0    12    0    0    0    0    0    0    0    0    0    0    0    0;
    612    0    0    0    0    1.024    100    0    12    0    0    0    0    0    0    0    0    0    0    0    0;
    612    0    0    0    0    1.024    100    0    12    0    0    0    0    0    0    0    0    0    0    0    0;
    613    0    0    0    0    1.022    100    0    35    0    0    0    0    0    0    0    0    0    0    0    0;
    613    0    0    0    0    1.022    100    0    11.5    0    0    0    0    0    0    0    0    0    0    0    0;
    624    -4.03    -3.22641501    8.3    -8.3    1.039    100    1    8.3    -8.3    0    0    0    0    0    0    0    0    0    0    0;
    633    0    0    4    -4.7    1.039    100    0    7.3    0    0    0    0    0    0    0    0    0    0    0    0;
    636    0    0    7    0    1.003    100    0    15    0    0    0    0    0    0    0    0    0    0    0    0;
    636    0.97    6.40444422    7    0    1.003    100    1    15    0    0    0    0    0    0    0    0    0    0    0    0;
    641    160.75    -3.89313289    80    -75    1.104    100    1    239    0    0    0    0    0    0    0    0    0    0    0    0;
    652    0    0    7    0    1.062    100    0    7    0    0    0    0    0    0    0    0    0    0    0    0;
    670    0.14    0    0    0    1.033    100    1    12    0    0    0    0    0    0    0    0    0    0    0    0;
    670    0.14    0    0    0    1.033    100    1    12    0    0    0    0    0    0    0    0    0    0    0    0;
    671    0    0    0    0    1.036    100    0    7.5    0    0    0    0    0    0    0    0    0    0    0    0;
    671    1.13    0    0    0    1.036    100    1    24    0    0    0    0    0    0    0    0    0    0    0    0;
    679    0    0    0    0    1.016    100    0    6.6    0    0    0    0    0    0    0    0    0    0    0    0;
    680    0    0    0    0    1.059    100    0    12    0    0    0    0    0    0    0    0    0    0    0    0;
    684    2.24    2.57470162    6    -5    0.966    100    1    9    0    0    0    0    0    0    0    0    0    0    0    0;
    684    2.24    2.57470162    6    -5    0.966    100    1    9    0    0    0    0    0    0    0    0    0    0    0    0;
    684    0    0    8    -5    0.966    100    0    11    0    0    0    0    0    0    0    0    0    0    0    0;
    684    2.24    3.9519201    8    -5    0.966    100    1    11    0    0    0    0    0    0    0    0    0    0    0    0;
    695    0    0    0    0    1.05    100    0    32.35    0    0    0    0    0    0    0    0    0    0    0    0;
    695    0    0    0    0    1.05    100    0    12    0    0    0    0    0    0    0    0    0    0    0    0;
    695    0    0    0    0    1.05    100    0    21    0    0    0    0    0    0    0    0    0    0    0    0;
    699    27.82    -7.41284545    15    -17    1.014    100    1    37    0    0    0    0    0    0    0    0    0    0    0    0;
    699    26.84    -7.41284545    15    -17    1.014    100    1    37    0    0    0    0    0    0    0    0    0    0    0    0;
    698    26.02    -8.05805561    15    -15    1.012    100    1    37    0    0    0    0    0    0    0    0    0    0    0    0;
    698    28    -8.05805561    15    -15    1.012    100    1    37    0    0    0    0    0    0    0    0    0    0    0    0;
    697    27.99    -8.06619391    15    -17    1.012    100    1    37    0    0    0    0    0    0    0    0    0    0    0    0;
    697    25.02    -8.06619391    15    -17    1.012    100    1    37    0    0    0    0    0    0    0    0    0    0    0    0;
    705    0    0    2    -2    0.96    100    0    4    0    0    0    0    0    0    0    0    0    0    0    0;
    705    0    0    2.5    -2.5    0.96    100    0    4    0    0    0    0    0    0    0    0    0    0    0    0;
    705    0.93    10.9960084    3    -3    0.96    100    1    5.7    0    0    0    0    0    0    0    0    0    0    0    0;
    705    0    0    6    -5    0.96    100    0    8.5    0    0    0    0    0    0    0    0    0    0    0    0;
    732    0    0    0    0    1.039    100    0    19.5    0    0    0    0    0    0    0    0    0    0    0    0;
    733    27.26    -4.90257028    18    -18    1.007    100    1    39    0    0    0    0    0    0    0    0    0    0    0    0;
    734    0    0    0    0    1.006    100    0    11.5    0    0    0    0    0    0    0    0    0    0    0    0;
    734    0    0    0    0    1.006    100    0    32    0    0    0    0    0    0    0    0    0    0    0    0;
    736    0    0    0    0    1.049    100    0    12    0    0    0    0    0    0    0    0    0    0    0    0;
    736    1.13    0    0    0    1.049    100    1    32    0    0    0    0    0    0    0    0    0    0    0    0;
    737    0    0    0.1    -0.1    1.039    100    0    5    0    0    0    0    0    0    0    0    0    0    0    0;
    744    0    0    4.22    -3.7    1.019    100    0    6.7    0    0    0    0    0    0    0    0    0    0    0    0;
    744    0    0    4.39    -3    1.019    100    0    5.6    0    0    0    0    0    0    0    0    0    0    0    0;
    745    9.03    -1.89079905    15    -15    1.015    100    1    26.6    0    0    0    0    0    0    0    0    0    0    0    0;
    746    1.93    4.83466387    2    -2    1.023    100    1    7    1    0    0    0    0    0    0    0    0    0    0    0;
    751    0    0    3    -3    1.015    100    0    5    -5    0    0    0    0    0    0    0    0    0    0    0;
    758    0    0    8    -8    1.06    100    0    23.5    0    0    0    0    0    0    0    0    0    0    0    0;
    760    0    0    0    0    1.045    100    0    6    0    0    0    0    0    0    0    0    0    0    0    0;
    761    0    0    0    0    1.043    100    0    6    0    0    0    0    0    0    0    0    0    0    0    0;
    760    16.76    -8.45801834    10    -8.42    1.045    100    1    37.5    0    0    0    0    0    0    0    0    0    0    0    0;
    761    15.68    -4.60903059    10    -6    1.043    100    1    37.5    0    0    0    0    0    0    0    0    0    0    0    0;
    762    0    0    0.06    -0.06    0.596    100    0    0.6    0    0    0    0    0    0    0    0    0    0    0    0;
    762    0    0    2.61    -2.61    0.596    100    0    26.1    0    0    0    0    0    0    0    0    0    0    0    0;
    762    0    0    0.16    -0.16    0.596    100    0    1.6    0    0    0    0    0    0    0    0    0    0    0    0;
    762    0    0    0.11    -0.11    0.596    100    0    1.1    0    0    0    0    0    0    0    0    0    0    0    0;
    766    0    0    0    0    1.025    100    0    37.5    0    0    0    0    0    0    0    0    0    0    0    0;
    766    0    0    0    0    1.025    100    0    34    0    0    0    0    0    0    0    0    0    0    0    0;
    786    0    0    26    -26    1.012    100    0    8    0    0    0    0    0    0    0    0    0    0    0    0;
    786    0    0    26    -26    1.012    100    0    15    0    0    0    0    0    0    0    0    0    0    0    0;
    787    0    0    26    -26    1.022    100    0    19    0    0    0    0    0    0    0    0    0    0    0    0;
    801    23.78    -7.70174273    15    -17    1.014    100    1    31    0    0    0    0    0    0    0    0    0    0    0    0;
    801    24.76    -7.70174273    15    -17    1.014    100    1    31    0    0    0    0    0    0    0    0    0    0    0    0;
    802    25.53    -6.15195336    15    -17    1.017    100    1    31    0    0    0    0    0    0    0    0    0    0    0    0;
    802    24.52    -6.15195336    15    -17    1.017    100    1    31    0    0    0    0    0    0    0    0    0    0    0    0;
    803    24.52    -6.79438031    15    -17    1.016    100    1    31    0    0    0    0    0    0    0    0    0    0    0    0;
    803    24.52    -6.79438031    15    -17    1.016    100    1    31    0    0    0    0    0    0    0    0    0    0    0    0;
    807    31.08    0    0    0    1.023    100    1    40.8    0    0    0    0    0    0    0    0    0    0    0    0;
    815    21.82    -3.21206436    6    -9    1.019    100    1    32    1    0    0    0    0    0    0    0    0    0    0    0;
    815    0    0    6    -9    1.019    100    0    32    1    0    0    0    0    0    0    0    0    0    0    0;
    816    22.35    -1.3635181    6    -9    1.019    100    1    32    1    0    0    0    0    0    0    0    0    0    0    0;
    816    22.35    -1.3635181    6    -9    1.019    100    1    32    1    0    0    0    0    0    0    0    0    0    0    0;
    816    20.35    -1.3635181    6    -9    1.019    100    1    32    1    0    0    0    0    0    0    0    0    0    0    0;
    816    22.35    -1.3635181    6    -9    1.019    100    1    32    1    0    0    0    0    0    0    0    0    0    0    0;
    826    0    0    3    -3    1.057    100    0    13    0    0    0    0    0    0    0    0    0    0    0    0;
    826    0    0    3    -3    1.057    100    0    7    0    0    0    0    0    0    0    0    0    0    0    0;
    829    0    0    0    0    1.058    100    0    2.4    0    0    0    0    0    0    0    0    0    0    0    0;
    830    6.55    2.27075069    10    -10    1.053    100    1    27    0    0    0    0    0    0    0    0    0    0    0    0;
    831    0    0    10    -10    0.978    100    0    20    0    0    0    0    0    0    0    0    0    0    0    0;
    833    0    0    3.14    -3.43    1.079    100    0    9.8    0    0    0    0    0    0    0    0    0    0    0    0;
...
];

%% branch data
%    fbus    tbus    r    x    b    rateA    rateB    rateC    ratio    angle    status    angmin    angmax    Pf    Qf    Pt    Qt
mpc.branch = [
    4639    1    0.005726    0.010482    0    0    0    0    1    0    1    0    0    -1.0000    1.0000    1.0001    -0.9998;
    5234    1    0.01284    0.025679    0    0    0    0    1    0    1    0    0    1.0004    -0.9992    -1.0001    0.9998;
    1676    2    0.005799    0.010615    0.0075    0    0    0    1    0    1    0    0    0.0000    -0.8067    0.0000    0.0000;
    1667    3    0.134039    0.309398    0.0035    0    0    0    1    0    1    0    0    13.8962    0.3323    -13.6579    -0.1563;
    2296    3    0.049131    0.133283    0.0015    0    0    0    1    0    1    0    0    -0.5551    2.2934    0.5579    -2.4437;
    695    4    0.025926    0.109136    0.0002    0    0    0    1    0    1    0    0    11.5828    6.6976    -11.5406    -6.5417;
    3931    4    0.05    0.126914    0.0006    0    0    0    1    0    1    0    0    -3.4821    2.7819    3.4914    -2.8233;
    5036    4    0.02321    0.097407    0.0016    0    0    0    1    0    1    0    0    41.5226    -4.5781    -41.1508    5.9650;
    4405    5    0.040564    0.113631    0.0013    0    0    0    1    0    1    0    0    11.0472    -0.0033    -11.0000    -0.0000;
    2772    6    0.006047    0.020912    0.0222    0    0    0    1    0    1    0    0    13.0104    2.0228    -13.0000    -4.3000;
    2773    7    0.012472    0.032099    0.0061    0    0    0    1    0    1    0    0    1.2002    0.0304    -1.2000    -0.7000;
    2459    8    0.002607    0.017462    0.0324    540    540    540    1    0    1    0    0    24.6174    9.6474    -24.6000    -13.1000;
    470    9    0.053893    0.14258    0.0017    0    0    0    1    0    1    0    0    15.0094    0.1022    -14.9000    0.0000;
    11    10    0.000247    0.001235    0.0005    0    0    0    1    0    1    0    0    0.0000    -0.0454    -0.0000    -0.0080;
    11    10    0.000247    0.001235    0.0002    0    0    0    1    0    1    0    0    0.0000    -0.0294    0.0000    0.0080;
    30    11    0.039753    0.100988    0.0047    0    0    0    1    0    1    0    0    -3.4574    0.6081    3.4621    -1.0980;
    2922    11    0.037654    0.096173    0.001    0    0    0    1    0    1    0    0    34.4747    -2.2269    -34.0621    3.1728;
    2174    12    0.014613    0.060721    0.0008    0    0    0    1    0    1    0    0    7.6626    3.0483    -7.6530    -3.0914;
    4009    12    0.034064    0.121139    0.0015    0    0    0    1    0    1    0    0    7.3683    2.9862    -7.3476    -3.0684;
    4011    12    0.000242    0.000442    0.0004    0    0    0    1    0    1    0    0    -15.0000    -6.2000    15.0006    6.1598;
    115    13    2.1e-05    0.000125    0.1386    737    737    737    1    0    1    0    0    0.0000    -0.0000    0.0000    -15.5409;
    2330    13    0.000145    0.001877    0.0635    2487    2487    2487    1    0    1    0    0    -288.1751    -60.0917    288.2870    54.4287;
    4569    13    0.000319    0.003234    0.0838    1841    1841    1841    1    0    1    0    0    288.5244    16.3446    -288.2870    -23.3468;
    116    13    2.1e-05    0.000125    0.1386    737    737    737    1    0    1    0    0    0.0000    -0.0000    0.0000    -15.5409;
    1220    14    0.04    0.134198    0.0274    0    0    0    1    0    1    0    0    -50.2623    -2.5665    51.1888    2.6198;
    2867    14    0.012222    0.052346    0.0026    0    0    0    1    0    1    0    0    -40.1204    1.1217    40.2947    -0.6702;
    4587    14    0.007284    0.045432    0.0024    0    0    0    1    0    1    0    0    115.7914    -1.7381    -114.9433    6.7531;
    4945    14    0.059963    0.154222    0.0236    0    0    0    1    0    1    0    0    -35.0851    -2.1753    35.7621    1.2856;
    5220    14    0.018025    0.110988    0.0073    0    0    0    1    0    1    0    0    -11.0209    -5.5447    11.0446    4.8651;
    2867    14    0.012222    0.052593    0.0032    0    0    0    1    0    1    0    0    -39.9429    1.0406    40.1157    -0.6603;
    4587    14    0.007284    0.044938    0.0024    0    0    0    1    0    1    0    0    117.0289    -1.9563    -116.1626    7.0264;
    2899    15    0.037541    0.100529    0.0011    0    0    0    1    0    1    0    0    -33.3233    8.5316    33.7448    -7.5193;
    4116    15    0.090199    0.211388    0.0023    0    0    0    1    0    1    0    0    -0.1420    -2.8439    0.1484    2.6155;
    4447    15    0.09801    0.267574    0    0    0    0    1    0    1    0    0    34.9739    -1.9535    -33.8932    4.9038;
    249    16    0.071806    0.191484    0.0019    0    0    0    1    0    1    0    0    4.2213    -2.4468    -4.2055    2.2871;
    337    16    0.119174    0.284958    0.0044    0    0    0    1    0    1    0    0    8.3739    1.4027    -8.2945    -1.6871;
    5824    17    0.022346    0.061111    0.0029    0    0    0    1    0    1    0    0    10.9242    -0.0531    -10.9000    -0.2000;
    3719    18    0.009383    0.019753    0    0    0    0    1    0    1    0    0    0.0000    0.0000    0.0000    0.0000;
    5084    19    0.000252    0.000504    0    0    0    0    1    0    1    0    0    0.0000    0.0000    0.0000    0.0000;
    3719    20    0.001975    0.004444    0    0    0    0    1    0    1    0    0    3.9078    -18.1825    -3.9000    18.2000;
    1349    21    0.036296    0.099012    0.0045    0    0    0    1    0    1    0    0    -11.1523    -2.2621    11.1960    1.8983;
    1592    21    0.032716    0.089136    0.0057    0    0    0    1    0    1    0    0    17.5891    -0.9664    -17.4960    0.6017;
    1837    22    0.138574    0.351474    0.0058    0    0    0    1    0    1    0    0    17.9683    -0.7882    -17.5580    1.2083;
    5013    22    0.094407    0.210456    0.0044    0    0    0    1    0    1    0    0    -0.2551    1.5517    0.2580    -2.0083;
    1152    23    0.047115    0.117158    0.001    0    0    0    1    0    1    0    0    12.1880    3.6490    -12.1151    -3.5716;
    2696    23    0.039557    0.120937    0.0132    0    0    0    1    0    1    0    0    22.5015    -2.9534    -22.3070    2.1824;
    3418    23    0.022676    0.062484    0.0007    0    0    0    1    0    1    0    0    -10.0000    -0.0000    10.0221    -0.0108;
    144    24    0.064568    0.16716    0.0113    0    0    0    1    0    1    0    0    19.0530    -4.8934    -18.8280    4.2442;
    1277    24    0.048605    0.128481    0.0062    0    0    0    1    0    1    0    0    -2.1229    2.2833    2.1280    -2.9442;
    490    25    0.004815    0.02963    0.0016    0    0    0    1    0    1    0    0    24.4065    -15.2607    -24.3720    15.2883;
    2086    25    0.007309    0.04463    0.0073    0    0    0    1    0    1    0    0    25.4863    10.7323    -25.4380    -11.2883;
    612    26    0.034321    0.145802    0.0073    0    0    0    1    0    1    0    0    -40.0721    0.8939    40.6002    0.5772;
    1860    26    0.004815    0.009753    0.0005    0    0    0    1    0    1    0    0    -14.0000    2.0000    14.0090    -2.0353;
    2595    26    0.049012    0.133704    0.0063    0    0    0    1    0    1    0    0    -31.0714    10.4190    31.5675    -9.7397;
    2915    26    0.04642    0.126543    0.0058    0    0    0    1    0    1    0    0    -10.3310    2.2862    10.3803    -2.7725;
    3332    26    0.046296    0.125926    0.006    0    0    0    1    0    1    0    0    -52.8199    4.2099    54.0838    -1.4022;
    4624    26    0.053704    0.136753    0.0065    0    0    0    1    0    1    0    0    -39.3750    3.8742    40.1865    -2.4933;
    2915    26    0.03358    0.120988    0.0062    0    0    0    1    0    1    0    0    -11.2790    1.5507    11.3201    -2.0662;
    536    27    0.006163    0.041067    0.0759    446    446    446    1    0    1    0    0    118.3493    -26.2668    -117.5604    22.9100;
    2343    27    0.000652    0.004369    0.0081    558    558    558    1    0    1    0    0    117.5801    26.4686    -117.4970    -26.8348;
    2677    28    0.050945    0.131922    0.0015    0    0    0    1    0    1    0    0    10.9054    -0.6078    -10.8490    0.5928;
    3884    28    0.058781    0.149005    0.0017    0    0    0    1    0    1    0    0    -10.7842    0.3765    10.8490    -0.3928;
    2880    29    0.067019    0.137566    0.0037    0    0    0    1    0    1    0    0    30.5786    -16.9825    -29.7460    18.3276;
    3314    29    0.032754    0.088939    0.0039    0    0    0    1    0    1    0    0    21.6319    13.3445    -21.4239    -13.1724;
    3314    29    0.030184    0.080096    0.0053    0    0    0    1    0    1    0    0    24.0651    14.5453    -23.8301    -14.4552;
    144    30    0.066049    0.187778    0.0099    0    0    0    1    0    1    0    0    24.4337    -1.3527    -24.0730    1.3080;
    1548    30    0.065062    0.133704    0.0062    0    0    0    1    0    1    0    0    -3.4874    6.7362    3.5248    -7.3255;
    4831    30    0.041728    0.106049    0.005    0    0    0    1    0    1    0    0    13.6688    -2.4555    -13.5944    2.1094;
    150    31    0.009574    0.03875    0.0114    0    0    0    1    0    1    0    0    -23.7551    0.7071    23.8058    -1.7243;
    3155    31    0.000171    0.000313    0.0002    0    0    0    1    0    1    0    0    -0.2000    0.6000    0.2000    -0.6215;
    3684    31    0.034266    0.09423    0.001    0    0    0    1    0    1    0    0    -33.4579    11.3614    33.8576    -10.3693;
    4733    31    0.006803    0.028219    0    0    0    0    1    0    1    0    0    -13.8718    -4.7284    13.8855    4.7850;
    150    31    0.008566    0.037541    0.0121    0    0    0    1    0    1    0    0    -24.6451    0.2773    24.6937    -1.3611;
    3721    32    0.009733    0.034089    0.0185    0    0    0    1    0    1    0    0    39.4421    5.4770    -39.3012    -7.0134;
    366    34    0.000277    0.002015    0.003    288    288    288    1    0    1    0    0    28.4495    -76.2086    -28.4329    75.9993;
    1012    33    0.00881    0.033995    0.0607    289    289    289    1    0    1    0    0    -60.7409    16.5913    61.0643    -22.0956;
    1153    33    0.004642    0.019832    0.0354    255    255    255    1    0    1    0    0    -14.7022    -43.5861    14.7850    40.0381;
    2573    34    0.008861    0.03506    0.0623    288    288    288    1    0    1    0    0    3.8142    -27.9615    -3.7637    21.3468;
    2697    34    0.006993    0.032869    0.0557    255    255    255    1    0    1    0    0    -2.2461    -25.0565    2.2776    19.1071;
    4738    33    0.002173    0.008731    0.0152    0    0    0    1    0    1    0    0    -50.7773    -25.5731    50.8401    24.1412;
    4848    34    0.00077    0.003121    0.0051    0    0    0    1    0    1    0    0    -21.3091    20.2262    21.3152    -20.7638;
    5661    33    0.004109    0.016138    0.0284    288    288    288    1    0    1    0    0    30.9054    -26.5383    -30.8467    23.6208;
    368    35    8.3e-05    0.000907    0.0202    1034    1034    1034    1    0    1    0    0    138.0300    -89.7208    -138.0105    87.6165;
    1104    35    0.000552    0.006726    0.0939    1786    1786    1786    1    0    1    0    0    374.0671    -68.4634    -373.3720    66.1787;
    2143    35    0.000512    0.008012    0.2455    2462    2462    2462    1    0    1    0    0    306.8039    -8.9658    -306.3851    -12.7009;
    3128    35    0.001107    0.00918    0.1906    1644    1644    1644    1    0    1    0    0    -197.5777    16.2792    197.9613    -34.9779;
    367    36    6.2e-05    0.000741    0.0173    1095    1095    1095    1    0    1    0    0    135.3400    -17.5120    -135.3300    15.6391;
    2143    35    0.000512    0.008019    0.2455    2462    2462    2462    1    0    1    0    0    306.5369    -8.9532    -306.1189    -12.7192;
    2143    36    0.001153    0.013123    0.1841    1433    1433    1433    1    0    1    0    0    20.2308    -14.6520    -20.2265    -6.4986;
    5219    37    0.055933    0.120685    0.0013    0    0    0    1    0    1    0    0    -17.3766    8.5528    17.5807    -8.2465;
    5505    37    0.039053    0.084404    0.001    0    0    0    1    0    1    0    0    20.1369    -3.3124    -19.9807    3.5465;
    725    38    0.00252    0.006551    0.0001    0    0    0    1    0    1    0    0    8.0017    2.9937    -8.0000    -3.0000;
    1224    39    0.009877    0.042222    0.0021    0    0    0    1    0    1    0    0    47.0507    -4.0115    -46.8376    4.7057;
    5799    39    0.024815    0.063086    0.0029    0    0    0    1    0    1    0    0    -52.3905    5.9569    53.0752    -4.5115;
    1224    39    0.009877    0.042222    0.0021    0    0    0    1    0    1    0    0    47.0507    -4.0115    -46.8376    4.7057;
    2244    40    0.056173    0.142593    0.0066    0    0    0    1    0    1    0    0    15.2439    -6.7414    -15.1060    6.3570;
    4587    40    0.034444    0.109012    0.0076    0    0    0    1    0    1    0    0    19.7504    11.0912    -19.5940    -11.4570;
    430    41    0.000158    0.000672    0.0719    331    331    331    1    0    1    0    0    13.2003    -6.5246    -13.2001    -1.7694;
    3945    41    4.5e-05    8.9e-05    0.002    268    268    268    1    0    1    0    0    -13.2000    -2.0000    13.2001    1.7694;
    1479    42    0.01096    0.020063    0.009    0    0    0    1    0    1    0    0    0.0208    -0.3266    -0.0208    -0.8057;
    2758    42    0.002268    0.008818    0.0099    0    0    0    1    0    1    0    0    -0.0207    -2.0508    0.0208    0.8057;
    2717    43    0.001481    0.006296    0.0039    0    0    0    1    0    1    0    0    3.3002    2.2727    -3.3000    -2.7000;
    3481    44    0.050617    0.137012    0.009    0    0    0    1    0    1    0    0    29.6398    -7.3043    -29.2004    7.5390;
    4314    44    0.074326    0.194507    0.0021    0    0    0    1    0    1    0    0    -13.8051    9.4267    14.0004    -9.1390;
    5087    45    0.000247    0.000741    0    0    0    0    1    0    1    0    0    3.8000    0.8001    -3.8000    -0.8000;
...